          13
 
 Ar  0.000000000000000E+000  0.000000000000000E+000  0.000000000000000E+000
 Ar   1.00000000000000       0.000000000000000E+000  0.000000000000000E+000
 Ar  0.000000000000000E+000   1.00000000000000       0.000000000000000E+000
 Ar  0.000000000000000E+000  0.000000000000000E+000   1.00000000000000     
 Ar   1.00000000000000        1.00000000000000       0.000000000000000E+000
 Ar  0.000000000000000E+000   1.00000000000000        1.00000000000000     
 Ar   1.00000000000000       0.000000000000000E+000   1.00000000000000     
 Ar   2.00000000000000       0.000000000000000E+000  0.000000000000000E+000
 Ar   2.00000000000000        2.00000000000000       0.000000000000000E+000
 Ar   2.00000000000000       0.000000000000000E+000   2.00000000000000     
 Ar   2.00000000000000        2.00000000000000        2.00000000000000     
 Ar   1.00000000000000        1.00000000000000        1.00000000000000     
 Ar   2.00000000000000        1.00000000000000        1.00000000000000     
          13
 
 Ar -0.246252102372910       0.153238228720254      -6.405523300477695E-004
 Ar  0.813875344153208       0.275283933663329      -5.563327568995075E-002
 Ar  0.182970975876092        1.23922887553202       0.298440720963961     
 Ar -0.692133710408300      -0.313788858508729        1.44752795283675     
 Ar  0.683241234848034       0.950937659027834      -0.974073389915871     
 Ar  0.178584871571369       0.531285105114439        1.17301909439573     
 Ar  0.980090762352429      -0.203655319433064       0.919641326539913     
 Ar   1.65475960651159        1.11958222364283      -0.470516289907462     
 Ar   2.41353369744044        1.75917944727941       0.526420067225429     
 Ar   2.14986749018482       0.829812692168192        1.70510584885905     
 Ar   1.23743003922586        1.88391856827450        1.49557163171636     
 Ar   1.40075817637351        1.15075186235546       0.879415739537365     
 Ar   2.30976152938311       0.359878256539644       0.452914285612152     
          13
 
 Ar -1.724317929042467E-002 -0.167045364109289       0.195398893071737     
 Ar   1.15579661985053       0.430399133117819       1.180481068015794E-002
 Ar -0.838309334291303        1.18874035344593       8.665269439361464E-002
 Ar -0.910948080071548       0.334088100910851        1.11276801837851     
 Ar  0.135022045335185       0.438290611586835      -0.637211157364306     
 Ar  0.193581994881123       0.856940356334622       0.730722361342685     
 Ar   1.09020283122882      -0.260231623202436        1.03217748679921     
 Ar   2.02214396646349       0.255849430219811      -0.485488490511924     
 Ar   2.12618730604921        1.82036229359486       3.723829293838327E-003
 Ar   2.17251354999077       0.858538986917474        1.26167821159707     
 Ar   2.16445829355107        1.92098988792118        1.58560984124280     
 Ar   1.23489170789987        1.41721290809245       0.701983781656522     
 Ar   2.00746380157507      -0.114001352381964       0.589634775425734     
          13
 
 Ar -4.674320964759579E-002 -0.264966391922076       0.287264490787594     
 Ar  0.612100095175418       0.642940819333266       0.333759554880441     
 Ar  -1.61882802383064        1.45709807907849      -0.303036348921321     
 Ar -0.611918227846331        1.07938136604956       0.752586172227626     
 Ar -0.219634074843007       0.792916420659898      -0.321782667912358     
 Ar  0.211946987041939       0.513598047828197        1.37084979173828     
 Ar   1.09290144913669      -0.172620221075037        1.06031973908055     
 Ar   1.10424132224193      -0.334503600528870      -0.313038363451292     
 Ar   1.28293218209834        1.12856773912356      -0.313544026367056     
 Ar   2.24829414300850       0.742405770255444        1.98475326877271     
 Ar   2.10592356147404        1.55889731361819       0.567379421846558     
 Ar  0.788116224291647        1.72094518685726       0.506281557694948     
 Ar   1.77869879030126       0.573556312570452       0.445229252588201     
          13
 
 Ar -0.375314088865087      -0.252053536020521       0.719795999760999     
 Ar  0.584525380183284       0.242337158740771       0.383720069618957     
 Ar  -2.34972320335291        1.74751958518245      -0.692014860464893     
 Ar -0.589589181176939       0.816432869572512        1.04886674073225     
 Ar -0.527270922399183       0.825092526819912      -8.511033334512322E-002
 Ar  0.306374582993679        1.04725294649434        1.30391694890933     
 Ar   1.15436588815460       0.282248219890057        1.44979635278349     
 Ar   1.37589633313524      -0.415275010884957      -6.554630974844605E-002
 Ar   1.50535880083003        1.18433256748512      -0.267617299662710     
 Ar   2.00983491676667       0.696617755066789        1.95486898164440     
 Ar   2.30822916990117        1.94122565249171       0.803646171144127     
 Ar  0.741947240971691        2.00367750316509        1.15080753984793     
 Ar   1.50741871666653        1.15910952422965       0.918544884899739     
          13
 
 Ar -6.703506465912928E-002 -0.519536063196457        1.10652968667210     
 Ar  0.277083956986686       0.367658238322871       0.483419693303562     
 Ar   2.29302168260641        1.29552799981076       -1.26533708449164     
 Ar -0.923280931300952        1.34377387027286       0.333849542577325     
 Ar -9.828022418261441E-002  0.772243625503305      -0.371222716734771     
 Ar -0.393524141120570       0.766099299685249        1.25261119491040     
 Ar  0.983375115546758      -9.472909493003344E-002   1.30606799112431     
 Ar   1.75236788915989      -0.494196507384453       0.199787068963877     
 Ar   1.94596452047435       0.520510508652430       0.181250668832177     
 Ar   2.12434805807167       0.222906982874014        1.70141441878867     
 Ar   2.18191470269235        2.00781373687276        1.15160675523171     
 Ar  0.311394577551827        1.46934673767273        1.00259199222559     
 Ar   1.30562599179247       0.995635310853317        1.04384463537796     
          13
 
 Ar  0.271552457046606      -0.692420103333823       0.578479690370439     
 Ar  0.487887003957426       0.318943909700083       0.206407052438932     
 Ar   2.10089021319315       0.869927428776242       -1.02383154906605     
 Ar -0.795273231900474       0.968056927381399       0.413415435487477     
 Ar -0.321282956380955        1.10035803924793       -1.04233207036666     
 Ar -7.756332223909931E-002  0.845275165628759        1.41876168166967     
 Ar  0.661551068551702      -5.530522954700522E-002   1.40129802679186     
 Ar   1.40949073001117       0.131341008778586       0.515631282296268     
 Ar   2.29625296005110       0.865483062232798       0.312222793856064     
 Ar   2.03828950606028       0.657053490145777        2.01281622182076     
 Ar   1.27801257918166        1.81990791549534       0.282743648129074     
 Ar  6.334047484388135E-002   1.95724643243746       0.707851173899695     
 Ar   1.41309840684442        1.17325557923252        1.09115582301660     
          13
 
 Ar  3.928600365255638E-002 -0.816831481238292       0.736620460130533     
 Ar -1.013404916111668E-002  0.288003699891352       0.417962811201206     
 Ar   1.75746833183087        1.29941258474713       -1.14116114540905     
 Ar -0.731857020644484        1.28101352126615       0.490582428686006     
 Ar -0.167485268151584        1.03603428940416      -0.426072136692848     
 Ar  0.366391996547188        1.11544737611565        1.04273486753567     
 Ar  0.520333278331984       5.376505612855120E-002   1.57082838780258     
 Ar   1.24614640698874       0.591023054689536       0.364778896004908     
 Ar   2.18725818093715        1.37388558107432       0.933046865513915     
 Ar   1.61469391032532       6.750626044247403E-002   1.75191069301787     
 Ar   1.15435176688233        1.68803505924660       0.399212416649271     
 Ar  0.124022411993579        2.19073156323843       0.554671986562639     
 Ar   1.29642005972358       0.956456826580078        1.33652918301748     
          13
 
 Ar  0.552486907579554      -0.712575521398858       0.682537493582571     
 Ar -4.581486284473099E-002  0.189682854350134       0.170755473437742     
 Ar   2.30343208508171        1.34955190993458      -0.994302543399829     
 Ar -1.566510141442719E-002   1.40373031744587       0.593075300013270     
 Ar -0.112662956154230       0.798543759517379      -0.751994481226306     
 Ar  0.409982316684128       0.923492979396475        1.55735864675385     
 Ar  0.765962757545824      -4.558476571687235E-002   1.87535865898490     
 Ar   1.14817408951680       0.593487225354753       0.695340259747452     
 Ar   2.28173532124948       0.813734363237024       4.455042597212185E-002
 Ar   1.79204506581818       0.103009153323047        2.10933802067000     
 Ar  0.710941517227247        1.68740995234327      -0.145055358218919     
 Ar  5.067996229313872E-003  -1.81019583682849        1.01852303155430     
 Ar   1.50747737886171        1.03547907467725        1.77043253667029     
          13
 
 Ar  0.855808690117443      -0.836279753588142       0.389421342313561     
 Ar -9.517278060856171E-003  0.243076858977479       9.718621376000044E-002
 Ar   1.85074251313362        1.27418198660259      -0.502626333676043     
 Ar  9.994848100253709E-002  0.790764729638941        1.09288274105396     
 Ar  7.436789182063365E-002   1.21657598778080      -0.809924876104968     
 Ar  0.753707187140785       1.880577192562485E-002   1.47449525614823     
 Ar   1.21061027208420      -0.927842531337788        1.61579881293824     
 Ar   1.14278568450202       0.590898858628325       0.344502003017094     
 Ar   2.15072049568919       0.961754310246963       0.523792282502213     
 Ar   2.41887468039249      -4.479452795710968E-002   2.17192715225442     
 Ar  0.661437709826032        1.50556565447377       5.515310284112561E-002
 Ar  2.483686125413516E-002  -1.84564528399152        1.19492381115830     
 Ar   1.40588559312750       0.873465260278602        1.45791287693307     
          13
 
 Ar  0.948565062148391       -1.04675278448231       0.287751073417527     
 Ar  0.269979371758192      -0.127737950746876      -0.294284817676260     
 Ar   1.74765573593344       0.963191314959425      -0.428277981422800     
 Ar  0.136571375051656       0.477710277077329       0.920431257475353     
 Ar  0.222739963947165        1.08884832614653      -0.974070097224885     
 Ar  0.843736811735392      -0.231541745635337        1.36033898346526     
 Ar   1.06806244486247      -0.743792218073541        2.28920784284473     
 Ar   1.11554527376831       4.004215290926275E-002  0.312249115640737     
 Ar   2.05653416100197       0.856647513673999       0.700596847315533     
 Ar   1.85365713749109      -4.648776555048338E-002   1.58589046876898     
 Ar  0.652187380676936        1.56618026957152       5.195254246504456E-002
 Ar  4.541324724437162E-002 -0.831873840982820        1.34357594950297     
 Ar  0.968784799820976       0.882388245269092        1.72700173486719     
